Circuit: * C:\Users\ldgau\Desktop\SwarmUS_ALTIUM\Electrical\HIVE_SIGHT\05 - SIMULATION\POWER\PROTECTIONS.asc

Direct Newton iteration for .op point succeeded.

Date: Mon Aug 03 18:58:49 2020
Total elapsed time: 0.110 seconds.

tnom = 27
temp = 27
method = modified trap
totiter = 5175
traniter = 5152
tranpoints = 1819
accept = 1562
rejected = 257
matrix size = 21
fillins = 16
solver = Normal
Matrix Compiler1: 2.29 KB object code size  0.9/0.2/[0.1]
Matrix Compiler2: off  [0.1]/0.2/0.2

